/*---------------------------------------------------------------------------*\
| =========                 |                                                 |
| \\      /  F ield         | foam-extend: Open Source CFD                    |
|  \\    /   O peration     | Version:     4.1                                |
|   \\  /    A nd           | Web:         http://www.foam-extend.org         |
|    \\/     M anipulation  | For copyright notice see file Copyright         |
\*---------------------------------------------------------------------------*/
Build  : 4.1-70b064d0f326
Exec   : transformPoints -translate (5e-5 0 0)
Date   : Mar 29 2022
Time   : 15:12:33
Host   : "coyote"
PID    : 8137
CtrlDict : "/mnt/dfca3cbd-fb05-48bc-8201-2509593ca904/OpenFOAM/holger-ext/applications/solvers/multiRegionFoam/tutorials/multiRegionDuineveldRisingBubble/baseMeshes/meshB/system/controlDict"
Case   : /mnt/dfca3cbd-fb05-48bc-8201-2509593ca904/OpenFOAM/holger-ext/applications/solvers/multiRegionFoam/tutorials/multiRegionDuineveldRisingBubble/baseMeshes/meshB
nProcs : 1
sigFpe : Enabling floating point exception trapping (FOAM_SIGFPE).
allowSystemOperations : Disallowing user-supplied system call operations

// * * * * * * * * * * * * * * * * * * * * * * * * * * * * * * * * * * * * * //
Create time

Translating points by (5e-05 0 0)
Writing points into directory "/mnt/dfca3cbd-fb05-48bc-8201-2509593ca904/OpenFOAM/holger-ext/applications/solvers/multiRegionFoam/tutorials/multiRegionDuineveldRisingBubble/baseMeshes/meshB/constant/polyMesh"

